[General]
# =====================================================================
# CHT x SANSA GEO<->MEO HANDOVER packet-trace scenario (handover-dynamics
# variant of omnetpp_cht_sansa.ini). Produces a REAL ESTNeT packet trace whose
# end-to-end latency STEPS when the active relay hands over from the GEO
# (APSTAR-7, ~38,700 km) to a Galileo MEO (GSAT0102, ~27,100 km) and back.
#
#   CHT (cg[0]/node3) <--RF--> [ APSTAR-7 GEO (sat[0]/node1)        ] <--RF--> SANSA (cg[1]/node4)
#                              [ GSAT0102 MEO (sat[1]/node2), 00:49.. ]
#
# WHY A CONTACT PLAN + MULTIPLE APP PHASES (see configs/*_handover.incl):
#   * A directional GS yagi can only point one way at a time, so it cannot track
#     the GEO and the MEO at once -- the re-pointing IS the handover. The moving
#     relay is steered by ContactPlanBasedNodeTracking + a NON-OVERLAPPING
#     per-GS contact plan (cht_sansa_handover.cp): GEO[0,1170]->MEO[1170,3600]->
#     GEO[3600,4500] sim-seconds (t=0 == 2026-06-15T00:30Z).
#   * Stock ESTNeT cannot relay one packet GS-A -> Sat -> GS-B (RadioHost floods
#     ground stations on broadcast, bypassing the sat), and a single BasicApp's
#     destinationNodes is not volatile, so each phase uses its OWN windowed
#     uplink/downlink BasicApp pair routed through the then-active sat. The
#     adapter composes the two one-hop legs per phase and concatenates phases.
#
# APP / leg map (appId = wrapper index; destAppId set to cross-wire each leg):
#   phase A (GEO,  t30..1165):  CHT.app0 ->node1 ; sat0.app0 ->node4 ; sink SANSA.app0
#   phase B (MEO,  t1175..3595):CHT.app1 ->node2 ; sat1.app0 ->node4 ; sink SANSA.app1
#   phase C (GEO,  t3605..4470):CHT.app2 ->node1 ; sat0.app1 ->node4 ; sink SANSA.app2
#   (10 s app guard inside each contact window keeps packets off the antenna
#    re-point transient; the small gaps render as honest handover gaps.)
#
# HONESTY (R12): ESTNeT-SIMULATED, not operator-measured. The GEO<->MEO route
# preference mirrors the viewer's demo-balanced-v1 SHOWCASE policy (it is NOT an
# RF-failure-driven handover -- the GEO stays visible the whole run); the
# satellites are genuinely mutually visible at those times (independently SGP4-
# verified). 20 W sat EIRP + 9600 bps PHY are assumed link params.
# =====================================================================

sim-time-limit = 4500s

include configs/basic.incl

# RECORDING — ON
record-eventlog = false
**.vector-recording = true
**.scalar-recording = true
**.statistic-recording = true
**.bin-recording = false

# SATELLITE ORBIT — APSTAR-7 GEO (node1) + GSAT0102 MEO (node2); explicit UTC epoch
include configs/orbit_cht_sansa_handover.incl

# GROUND STATIONS — CHT (node3) + SANSA (node4), internet off, ContactPlanBasedNodeTracking
include configs/gs_cht_sansa_handover.incl

# CONTACT PLAN — drives the antenna handover (non-overlapping per-GS contacts)
*.contactPlanManager.contactPlanFile = "./configs/cht_sansa_handover.cp"

# RADIO — GEO-strengthened (sat 20 W); MEO is closer so it closes with more margin
include configs/radio_geo_strong.incl

# ANTENNA
include configs/antenna_sat_isotropic.incl
include configs/antenna_gs_yagi.incl

# MAC
include configs/mac_simple.incl

# PROTOCOL — unicast (broadcast would flood GSs directly and bypass the sat)
*.*.hostType = "estnet.protocol.simpleprotocol.SimpleProtocolNode"
*.*.networkHost.protocolModule.useBroadcasts = false

# APP COUNTS (per node)
*.cg[0].networkHost.numApps = 3
*.cg[1].networkHost.numApps = 3
*.sat[0].networkHost.numApps = 2
*.sat[1].networkHost.numApps = 1
*.*.networkHost.appWrapper[*].appType = "BasicApp"

# Common app cadence
*.*.networkHost.appWrapper[*].app.sendInterval = 5s
*.*.networkHost.appWrapper[*].app.payloadSize = 100B

# ---- PHASE A : GEO uplink CHT(node3)->APSTAR-7(node1) ----
*.cg[0].networkHost.appWrapper[0].app.sending = true
*.cg[0].networkHost.appWrapper[0].app.startTime = 30s
*.cg[0].networkHost.appWrapper[0].app.stopTime = 1165s
*.cg[0].networkHost.appWrapper[0].app.destinationNodes = "1"
*.cg[0].networkHost.appWrapper[0].app.destAppId = 0
# ---- PHASE A : GEO downlink APSTAR-7(node1)->SANSA(node4) ----
*.sat[0].networkHost.appWrapper[0].app.sending = true
*.sat[0].networkHost.appWrapper[0].app.startTime = 30s
*.sat[0].networkHost.appWrapper[0].app.stopTime = 1165s
*.sat[0].networkHost.appWrapper[0].app.destinationNodes = "4"
*.sat[0].networkHost.appWrapper[0].app.destAppId = 0

# ---- PHASE B : MEO uplink CHT(node3)->GSAT0102(node2) ----
*.cg[0].networkHost.appWrapper[1].app.sending = true
*.cg[0].networkHost.appWrapper[1].app.startTime = 1175s
*.cg[0].networkHost.appWrapper[1].app.stopTime = 3595s
*.cg[0].networkHost.appWrapper[1].app.destinationNodes = "2"
*.cg[0].networkHost.appWrapper[1].app.destAppId = 0
# ---- PHASE B : MEO downlink GSAT0102(node2)->SANSA(node4) ----
*.sat[1].networkHost.appWrapper[0].app.sending = true
*.sat[1].networkHost.appWrapper[0].app.startTime = 1175s
*.sat[1].networkHost.appWrapper[0].app.stopTime = 3595s
*.sat[1].networkHost.appWrapper[0].app.destinationNodes = "4"
*.sat[1].networkHost.appWrapper[0].app.destAppId = 1

# ---- PHASE C : GEO uplink CHT(node3)->APSTAR-7(node1) ----
*.cg[0].networkHost.appWrapper[2].app.sending = true
*.cg[0].networkHost.appWrapper[2].app.startTime = 3605s
*.cg[0].networkHost.appWrapper[2].app.stopTime = 4470s
*.cg[0].networkHost.appWrapper[2].app.destinationNodes = "1"
*.cg[0].networkHost.appWrapper[2].app.destAppId = 1
# ---- PHASE C : GEO downlink APSTAR-7(node1)->SANSA(node4) ----
*.sat[0].networkHost.appWrapper[1].app.sending = true
*.sat[0].networkHost.appWrapper[1].app.startTime = 3605s
*.sat[0].networkHost.appWrapper[1].app.stopTime = 4470s
*.sat[0].networkHost.appWrapper[1].app.destinationNodes = "4"
*.sat[0].networkHost.appWrapper[1].app.destAppId = 2

# ---- SANSA receive-only sinks (one per phase, appId = wrapper index) ----
*.cg[1].networkHost.appWrapper[*].app.sending = false
